/*--------------------------------*- C++ -*----------------------------------*\
| =========                 |                                                 |
| \\      /  F ield         | OpenFOAM: The Open Source CFD Toolbox           |
|  \\    /   O peration     | Version:  2.3.0                                 |
|   \\  /    A nd           | Web:      www.OpenFOAM.org                      |
|    \\/     M anipulation  |                                                 |
\*---------------------------------------------------------------------------*/
FoamFile
{
    version     2.0;
    format      ascii;
    class       dictionary;
    location    "system";
    object      controlDict;
}
// * * * * * * * * * * * * * * * * * * * * * * * * * * * * * * * * * * * * * //

application     pimpleDyMFoam;

startFrom       startTime;

startTime       0;

stopAt          endTime;

endTime         #include "../controls/endTime"; //0.3; //1.8;

deltaT          0.0003; // 0.0001;

// writeControl    timeStep;
// writeInterval   60;// 30; //120;

writeControl    adjustableRunTime;
writeInterval   0.02; // 500 steps saved in 1.8 seconds
// writeInterval   0.01; // 180 steps saved in 1.8 seconds

purgeWrite      0;

writeFormat     binary; //ascii;

writePrecision  6;

writeCompression on; //off;

timeFormat      general;

timePrecision   6;

runTimeModifiable true;

adjustTimeStep  yes;
maxCo           #include "../controls/maxCo";

functions
{

    #includeFunc residuals
    #includeFunc singleGraph
    // #includeFunc probes

//     readFields
//     {
//         type            readFields;
//         libs ("libfieldFunctionObjects.so");
//         enabled         true;
//         writeControl    timeStep;
//         writeInterval   1;
// 
//         fields
//         (
//             p T U phi
//         );
//     }
    
    
    // Calculation yPlus
    // See: src/functionObjects/field/yPlus
    yPlus
    {
        type        yPlus;
        functionObjectLibs ("libfieldFunctionObjects.so");

        rho rhoInf;
        rhoInf      1000;           // Redundant for incompressible
        enabled         true;
        writeControl   outputTime; //timeStep; 
        writeInterval  1;
    }
    
    // Calculation wallShearStress
    // See: src/functionObjects/field/wallShearStress
    wallShearStress
    {
        type        wallShearStress;
        functionObjectLibs ("libfieldFunctionObjects.so");

        rho rhoInf;
        rhoInf      1000;           // Redundant for incompressible
        enabled         true;
        writeControl   outputTime; //timeStep; 
        writeInterval  1;
    }


    // Calculation CourantNo
    // See: src/functionObjects/utilities/CourantNo
    CourantNo
    {
        type        CourantNo;
        functionObjectLibs ("libfieldFunctionObjects.so");

        enabled         true;
        writeControl   outputTime; //timeStep;
        writeInterval  1;

    }


    forces-blade0
    {
        type        forces;

        functionObjectLibs ( "libforces.so" );

        writeControl   timeStep;
        writeInterval  1;

        log         yes;

        // Reference pressure [Pa]
        pRef            100000;
        patches     (blade0);
        rho         rhoInf;
        rhoInf      1000;
        p       p;
        U       U;
        log         true;
        CofR        (0 0 0);  // Axle midpoint on ground
    }
    forces-blade1
    {
        type        forces;

        functionObjectLibs ( "libforces.so" );

        writeControl   timeStep;
        writeInterval  1;

        log         yes;

        // Reference pressure [Pa]
        pRef            100000;
        patches     (blade1);
        p       p;
        U       U;
        rho         rhoInf;
        rhoInf      1000;
        log         true;
        CofR        (0 0 0);  // Axle midpoint on ground
    }
    forces-blade2
    {
        type        forces;

        functionObjectLibs ( "libforces.so" );

        writeControl   timeStep;
        writeInterval  1;

        log         yes;

        // Reference pressure [Pa]
        pRef            100000;
        patches     (blade2);
        p       p;
        U       U;
        rho         rhoInf;
        rhoInf      1000;
        log         true;
        CofR        (0 0 0);  // Axle midpoint on ground
    }
    forces-blades
    {
        type        forces;

        functionObjectLibs ( "libforces.so" );

        writeControl   timeStep;
        writeInterval  1;

        log         yes;

        // Reference pressure [Pa]
        pRef            100000;
        patches     (blade0 blade1 blade2);
        p       p;
        U       U;
        rho         rhoInf;
        rhoInf      1000;
        log         true;
        CofR        (0 0 0);  // Axle midpoint on ground
    }
}


// ************************************************************************* //
