/*--------------------------------*- C++ -*----------------------------------*\
| =========                 |                                                 |
| \\      /  F ield         | OpenFOAM: The Open Source CFD Toolbox           |
|  \\    /   O peration     | Version:  2.3.0                                 |
|   \\  /    A nd           | Web:      www.OpenFOAM.org                      |
|    \\/     M anipulation  |                                                 |
\*---------------------------------------------------------------------------*/
FoamFile
{
    version     2.0;
    format      ascii;
    class       volScalarField;
    location    "0";
    object      p;
}
// * * * * * * * * * * * * * * * * * * * * * * * * * * * * * * * * * * * * * //

dimensions      [0 2 -2 0 0 0 0];

internalField   uniform 0;

boundaryField
{
	#include "empty-front-back"
    
    inlet
    {
        //type            totalPressure;
        //gamma           1;
        //p0              uniform 0;  
        type            zeroGradient;
    }

    outlet
    {
        type            fixedValue;
        value           uniform 0;
    }

    walls
    {
        type            zeroGradient;
    }

    blades
    {
        type            zeroGradient;
    }

    AMI-master    
    {
        type            cyclicAMI;
        value           $internalField;
    }

    AMI-slave 
    {
        type            cyclicAMI;
        value           $internalField;
    }
}


// ************************************************************************* //
