/*--------------------------------*- C++ -*----------------------------------*\
| =========                 |                                                 |
| \\      /  F ield         | OpenFOAM: The Open Source CFD Toolbox           |
|  \\    /   O peration     | Version:  5.x                                   |
|   \\  /    A nd           | Web:      www.OpenFOAM.org                      |
|    \\/     M anipulation  |                                                 |
\*---------------------------------------------------------------------------*/
FoamFile
{
    version     2.0;
    format      ascii;
    class       polyBoundaryMesh;
    location    "constant/polyMesh";
    object      boundary;
}
// * * * * * * * * * * * * * * * * * * * * * * * * * * * * * * * * * * * * * //

4
(
    back
    {
        type            wall;
        inGroups        1(wall);
        nFaces          2232;
        startFace       65015;
    }
    front
    {
        type            wall;
        inGroups        1(wall);
        nFaces          2232;
        startFace       67247;
    }
    blade0
    {
        type            wall;
        inGroups        
2
(
blades
wall
)
;
        nFaces          3184;
        startFace       69479;
    }
    AMI-int0
    {
        type            patch;
        inGroups        1(blades);
        nFaces          1440;
        startFace       72663;
    }
)

// ************************************************************************* //
