/*--------------------------------*- C++ -*----------------------------------*\
| =========                 |                                                 |
| \\      /  F ield         | OpenFOAM: The Open Source CFD Toolbox           |
|  \\    /   O peration     | Version:  2.3.0                                 |
|   \\  /    A nd           | Web:      www.OpenFOAM.org                      |
|    \\/     M anipulation  |                                                 |
\*---------------------------------------------------------------------------*/
FoamFile
{
    version     2.2;
    format      ascii;
    class       dictionary;
    object      snappyHexMeshDict;
}
// * * * * * * * * * * * * * * * * * * * * * * * * * * * * * * * * * * * * * //

// Which of the steps to run
castellatedMesh true;
snap            true;
addLayers       true;


// Geometry. Definition of all surfaces. All surfaces are of class
// searchableSurface.
// Surfaces are used
// - to specify refinement for any mesh cell intersecting it
// - to specify refinement for any mesh cell inside/outside/near
// - to 'snap' the mesh boundary to the surface
geometry
{
    blade0.stl
    {
        type        triSurfaceMesh;
        name        blade0;
    }
    AMI-int0.stl
    {
        type        triSurfaceMesh;
        name        AMI-int0-in;
    }
};



// Settings for the castellatedMesh generation.
castellatedMeshControls
{
	#include "../include/castelleted-prop"

    // Surface based refinement
    // ~~~~~~~~~~~~~~~~~~~~~~~~

    // Specifies two levels for every surface. The first is the minimum level,
    // every cell intersecting a surface gets refined up to the minimum level.
    // The second level is the maximum level. Cells that 'see' multiple
    // intersections where the intersections make an
    // angle > resolveFeatureAngle get refined up to the maximum level.

    refinementSurfaces
    {
        blade0
        {
			#include "../include/refinement-blade"
        }
		AMI-int0-in//"AMI*"
        {
			#include "../include/refinement-ami-int"
        }
    }

    // Resolve sharp angles
    //resolveFeatureAngle 30;


    // Region-wise refinement
    // ~~~~~~~~~~~~~~~~~~~~~~

    // Specifies refinement level for cells in relation to a surface. One of
    // three modes
    // - distance. 'levels' specifies per distance to the surface the
    //   wanted refinement level. The distances need to be specified in
    //   descending order.
    // - inside. 'levels' is only one entry and only the level is used. All
    //   cells inside the surface get refined up to the level. The surface
    //   needs to be closed for this to be possible.
    // - outside. Same but cells outside.

    refinementRegions
    {
        blade0
        {
			#include "../include/refinement-region-blade"
        }
        //innerCylinderSmall
        //{
        //    mode        inside;
        //    levels      ((1E15 4));
        //}
    }


    // Mesh selection
    // ~~~~~~~~~~~~~~

    // After refinement patches get added for all refinementSurfaces and
    // all cells intersecting the surfaces get put into these patches. The
    // section reachable from the locationInMesh is kept.
    // NOTE: This point should never be on a face, always inside a cell, even
    // after refinement.
    locationInMesh (0.060 -0.040 0.11);
}



// Settings for the snapping.
snapControls
{
	#include "../include/snap-prop"
}



// Settings for the layer addition.
addLayersControls
{

    // Per final patch (so not geometry!) the layer information
    layers
    {
		AMI-int0-in
		{
			nSurfaceLayers 2;
		}
    }
	#include "../include/layers-prop"
}



// Generic mesh quality settings. At any undoable phase these determine
// where to undo.
meshQualityControls
{
	#include "../include/mesh-quality-prop"
}


// Merge tolerance. Is fraction of overall bounding box of initial mesh.
// Note: the write tolerance needs to be higher than this.
mergeTolerance 1e-6;


// ************************************************************************* //
