/*--------------------------------*- C++ -*----------------------------------*\
| =========                 |                                                 |
| \\      /  F ield         | OpenFOAM: The Open Source CFD Toolbox           |
|  \\    /   O peration     | Version:  5.x                                   |
|   \\  /    A nd           | Web:      www.OpenFOAM.org                      |
|    \\/     M anipulation  |                                                 |
\*---------------------------------------------------------------------------*/
FoamFile
{
    version     2.0;
    format      ascii;
    class       polyBoundaryMesh;
    location    "constant/polyMesh";
    object      boundary;
}
// * * * * * * * * * * * * * * * * * * * * * * * * * * * * * * * * * * * * * //

16
(
    back
    {
        type            wall;
        inGroups        1(wall);
        nFaces          0;
        startFace       35236;
    }
    walls
    {
        type            wall;
        inGroups        1(wall);
        nFaces          80;
        startFace       35236;
    }
    inlet
    {
        type            patch;
        nFaces          40;
        startFace       35316;
    }
    front
    {
        type            wall;
        inGroups        1(wall);
        nFaces          35774;
        startFace       35356;
    }
    outlet
    {
        type            patch;
        nFaces          40;
        startFace       71130;
    }
    blade0
    {
        type            wall;
        inGroups        
2
(
blades
wall
)
;
        nFaces          199;
        startFace       71170;
    }
    blade1
    {
        type            wall;
        inGroups        
2
(
blades
wall
)
;
        nFaces          229;
        startFace       71369;
    }
    blade2
    {
        type            wall;
        inGroups        
2
(
blades
wall
)
;
        nFaces          199;
        startFace       71598;
    }
    AMI-int0-master
    {
        type            cyclicAMI;
        inGroups        1(cyclicAMI);
        nFaces          180;
        startFace       71797;
        matchTolerance  0.0001;
        transform       noOrdering;
        neighbourPatch  AMI-int0-slave;
    }
    AMI-int0-slave
    {
        type            cyclicAMI;
        inGroups        1(cyclicAMI);
        nFaces          184;
        startFace       71977;
        matchTolerance  0.0001;
        transform       noOrdering;
        neighbourPatch  AMI-int0-master;
    }
    AMI-int1-master
    {
        type            cyclicAMI;
        inGroups        1(cyclicAMI);
        nFaces          180;
        startFace       72161;
        matchTolerance  0.0001;
        transform       noOrdering;
        neighbourPatch  AMI-int1-slave;
    }
    AMI-int1-slave
    {
        type            cyclicAMI;
        inGroups        1(cyclicAMI);
        nFaces          184;
        startFace       72341;
        matchTolerance  0.0001;
        transform       noOrdering;
        neighbourPatch  AMI-int1-master;
    }
    AMI-int2-master
    {
        type            cyclicAMI;
        inGroups        1(cyclicAMI);
        nFaces          180;
        startFace       72525;
        matchTolerance  0.0001;
        transform       noOrdering;
        neighbourPatch  AMI-int2-slave;
    }
    AMI-int2-slave
    {
        type            cyclicAMI;
        inGroups        1(cyclicAMI);
        nFaces          184;
        startFace       72705;
        matchTolerance  0.0001;
        transform       noOrdering;
        neighbourPatch  AMI-int2-master;
    }
    AMI-ext-master
    {
        type            cyclicAMI;
        inGroups        1(cyclicAMI);
        nFaces          496;
        startFace       72889;
        matchTolerance  0.0001;
        transform       noOrdering;
        neighbourPatch  AMI-ext-slave;
    }
    AMI-ext-slave
    {
        type            cyclicAMI;
        inGroups        1(cyclicAMI);
        nFaces          500;
        startFace       73385;
        matchTolerance  0.0001;
        transform       noOrdering;
        neighbourPatch  AMI-ext-master;
    }
)

// ************************************************************************* //
