/*--------------------------------*- C++ -*----------------------------------*\
| =========                 |                                                 |
| \\      /  F ield         | OpenFOAM: The Open Source CFD Toolbox           |
|  \\    /   O peration     | Version:  5.x                                   |
|   \\  /    A nd           | Web:      www.OpenFOAM.org                      |
|    \\/     M anipulation  |                                                 |
\*---------------------------------------------------------------------------*/
FoamFile
{
    version     2.0;
    format      ascii;
    class       polyBoundaryMesh;
    location    "constant/polyMesh";
    object      boundary;
}
// * * * * * * * * * * * * * * * * * * * * * * * * * * * * * * * * * * * * * //

12
(
    back
    {
        type            wall;
        inGroups        1(wall);
        nFaces          13375;
        startFace       324932;
    }
    front
    {
        type            wall;
        inGroups        1(wall);
        nFaces          13375;
        startFace       338307;
    }
    AMI-ext-in
    {
        type            wall;
        inGroups        1(wall);
        nFaces          3968;
        startFace       351682;
    }
    AMI-int0-out
    {
        type            wall;
        inGroups        1(wall);
        nFaces          1472;
        startFace       355650;
    }
    AMI-int1-out
    {
        type            wall;
        inGroups        1(wall);
        nFaces          1472;
        startFace       357122;
    }
    AMI-int2-out
    {
        type            wall;
        inGroups        1(wall);
        nFaces          1472;
        startFace       358594;
    }
    blade0
    {
        type            wall;
        inGroups        
2
(
blades
wall
)
;
        nFaces          3184;
        startFace       360066;
    }
    AMI-int0-in
    {
        type            wall;
        inGroups        1(wall);
        nFaces          1440;
        startFace       363250;
    }
    blade1
    {
        type            wall;
        inGroups        
2
(
blades
wall
)
;
        nFaces          3648;
        startFace       364690;
    }
    AMI-int1-in
    {
        type            wall;
        inGroups        1(wall);
        nFaces          1440;
        startFace       368338;
    }
    blade2
    {
        type            wall;
        inGroups        
2
(
blades
wall
)
;
        nFaces          3184;
        startFace       369778;
    }
    AMI-int2-in
    {
        type            wall;
        inGroups        1(wall);
        nFaces          1440;
        startFace       372962;
    }
)

// ************************************************************************* //
