FoamFile
{
    version     2.0;
    format      ascii;
    class       dictionary;
    object      blockMeshDict;
}

// * * * * * * * * * * * * * * * * * * * * * * * * * * * * * * * * * * * * * //
// Created by Andreee94
// -------> 2D Foam GUI
// * * * * * * * * * * * * * * * * * * * * * * * * * * * * * * * * * * * * * //

convertToMeters 1;

//xmin -0.2;
//xmax 0.2;
//ymin -0.2;
//ymax 0.2;
//zmin 0.10;
//zmax 0.12;
//
//deltax 0.01;
//deltay 0.01;
//deltaz 0.01;
//
//lx #calc "$xmax - $xmin";
//ly #calc "$ymax - $ymin";
//lz #calc "$zmax - $zmin";
//
//xcells #calc "round($lx/$deltax)";
//ycells #calc "round($ly/$deltay)";
//zcells 1;
//
//vertices
//(
//    ($xmin $ymin $zmin) //0
//    ($xmax $ymin $zmin) //1
//    ($xmax $ymax $zmin) //2
//    ($xmin $ymax $zmin) //3
//    
//    ($xmin $ymin $zmax) //4
//    ($xmax $ymin $zmax) //5
//    ($xmax $ymax $zmax) //6
//    ($xmin $ymax $zmax) //7
//);

#include "../include/vertices"

edges
(
);

boundary
(
    back  // added automatically from blocks definition
    {
        type wall;
        faces
        (
            (0    1    2    3)
        );
    }

    walls
    {
        type wall;
        faces
        (
            (1    0    4    5)
            (3    2    6    7)
        );
    }

    inlet
    {
        type patch;
        faces
        (
            (0    3    7    4)
        );
    }

    front  // added automatically from blocks definition
    {
        type wall;
        faces
        (
            (7    6    5    4)
        );
    }

    outlet
    {
        type patch;
        faces
        (
            (2    1    5    6)
        );
    }

);

blocks
(
    //hex (0 1 2 3 4 5 6 7) ($xcells $ycells $zcells) simpleGrading (1 1 1)
    hex (0 1 2 3 4 5 6 7) cellZone-steady #include "../include/cells-array" simpleGrading (1 1 1)
);

mergePatchPairs
(
);

