/*--------------------------------*- C++ -*----------------------------------*\
| =========                 |                                                 |
| \\      /  F ield         | OpenFOAM: The Open Source CFD Toolbox           |
|  \\    /   O peration     | Version:  5.x                                   |
|   \\  /    A nd           | Web:      www.OpenFOAM.org                      |
|    \\/     M anipulation  |                                                 |
\*---------------------------------------------------------------------------*/
FoamFile
{
    version     2.0;
    format      ascii;
    class       polyBoundaryMesh;
    location    "constant/polyMesh";
    object      boundary;
}
// * * * * * * * * * * * * * * * * * * * * * * * * * * * * * * * * * * * * * //

13
(
    back
    {
        type            wall;
        inGroups        1(wall);
        nFaces          14315;
        startFace       295212;
    }
    walls
    {
        type            wall;
        inGroups        1(wall);
        nFaces          80;
        startFace       309527;
    }
    inlet
    {
        type            patch;
        nFaces          40;
        startFace       309607;
    }
    front
    {
        type            wall;
        inGroups        1(wall);
        nFaces          14315;
        startFace       309647;
    }
    outlet
    {
        type            patch;
        nFaces          40;
        startFace       323962;
    }
    AMI-ext
    {
        type            wall;
        inGroups        1(wall);
        nFaces          2000;
        startFace       324002;
    }
    AMI-int0
    {
        type            wall;
        inGroups        1(wall);
        nFaces          1472;
        startFace       326002;
    }
    AMI-int1
    {
        type            wall;
        inGroups        1(wall);
        nFaces          2912;
        startFace       327474;
    }
    AMI-int2
    {
        type            wall;
        inGroups        1(wall);
        nFaces          2912;
        startFace       330386;
    }
    blade0
    {
        type            wall;
        inGroups        
2
(
blades
wall
)
;
        nFaces          3184;
        startFace       333298;
    }
    AMI-int0_blade0
    {
        type            patch;
        inGroups        1(blades);
        nFaces          1440;
        startFace       336482;
    }
    blade1
    {
        type            wall;
        inGroups        
2
(
blades
wall
)
;
        nFaces          3648;
        startFace       337922;
    }
    blade2
    {
        type            wall;
        inGroups        
2
(
blades
wall
)
;
        nFaces          3184;
        startFace       341570;
    }
)

// ************************************************************************* //
