/*--------------------------------*- C++ -*----------------------------------*\
| =========                 |                                                 |
| \\      /  F ield         | OpenFOAM: The Open Source CFD Toolbox           |
|  \\    /   O peration     | Version:  5.x                                   |
|   \\  /    A nd           | Web:      www.OpenFOAM.org                      |
|    \\/     M anipulation  |                                                 |
\*---------------------------------------------------------------------------*/
FoamFile
{
    version     2.0;
    format      ascii;
    class       polyBoundaryMesh;
    location    "constant/polyMesh";
    object      boundary;
}
// * * * * * * * * * * * * * * * * * * * * * * * * * * * * * * * * * * * * * //

16
(
    back
    {
        type            wall;
        inGroups        1(wall);
        nFaces          17887;
        startFace       391012;
    }
    walls
    {
        type            wall;
        inGroups        1(wall);
        nFaces          80;
        startFace       408899;
    }
    inlet
    {
        type            patch;
        nFaces          40;
        startFace       408979;
    }
    front
    {
        type            wall;
        inGroups        1(wall);
        nFaces          17887;
        startFace       409019;
    }
    outlet
    {
        type            patch;
        nFaces          40;
        startFace       426906;
    }
    AMI-ext-out
    {
        type            wall;
        inGroups        1(wall);
        nFaces          4000;
        startFace       426946;
    }
    AMI-ext-in
    {
        type            wall;
        inGroups        1(wall);
        nFaces          3968;
        startFace       430946;
    }
    AMI-int0-out
    {
        type            wall;
        inGroups        1(wall);
        nFaces          1472;
        startFace       434914;
    }
    AMI-int1-out
    {
        type            wall;
        inGroups        1(wall);
        nFaces          1472;
        startFace       436386;
    }
    AMI-int2-out
    {
        type            wall;
        inGroups        1(wall);
        nFaces          1472;
        startFace       437858;
    }
    blade0
    {
        type            wall;
        inGroups        
2
(
blades
wall
)
;
        nFaces          3184;
        startFace       439330;
    }
    AMI-int0-in
    {
        type            wall;
        inGroups        1(wall);
        nFaces          1440;
        startFace       442514;
    }
    blade1
    {
        type            wall;
        inGroups        
2
(
blades
wall
)
;
        nFaces          3648;
        startFace       443954;
    }
    AMI-int1-in
    {
        type            wall;
        inGroups        1(wall);
        nFaces          1440;
        startFace       447602;
    }
    blade2
    {
        type            wall;
        inGroups        
2
(
blades
wall
)
;
        nFaces          3184;
        startFace       449042;
    }
    AMI-int2-in
    {
        type            wall;
        inGroups        1(wall);
        nFaces          1440;
        startFace       452226;
    }
)

// ************************************************************************* //
