/*--------------------------------*- C++ -*----------------------------------*\
| =========                 |                                                 |
| \\      /  F ield         | OpenFOAM: The Open Source CFD Toolbox           |
|  \\    /   O peration     | Version:  5.x                                   |
|   \\  /    A nd           | Web:      www.OpenFOAM.org                      |
|    \\/     M anipulation  |                                                 |
\*---------------------------------------------------------------------------*/
FoamFile
{
    version     2.0;
    format      ascii;
    class       polyBoundaryMesh;
    location    "constant/polyMesh";
    object      boundary;
}
// * * * * * * * * * * * * * * * * * * * * * * * * * * * * * * * * * * * * * //

5
(
    back
    {
        type            wall;
        inGroups        1(wall);
        nFaces          1600;
        startFace       3120;
    }
    walls
    {
        type            wall;
        inGroups        1(wall);
        nFaces          80;
        startFace       4720;
    }
    inlet
    {
        type            patch;
        nFaces          40;
        startFace       4800;
    }
    front
    {
        type            wall;
        inGroups        1(wall);
        nFaces          1600;
        startFace       4840;
    }
    outlet
    {
        type            patch;
        nFaces          40;
        startFace       6440;
    }
)

// ************************************************************************* //
