/*--------------------------------*- C++ -*----------------------------------*\
| =========                 |                                                 |
| \\      /  F ield         | OpenFOAM: The Open Source CFD Toolbox           |
|  \\    /   O peration     | Version:  5.x                                   |
|   \\  /    A nd           | Web:      www.OpenFOAM.org                      |
|    \\/     M anipulation  |                                                 |
\*---------------------------------------------------------------------------*/
FoamFile
{
    version     2.0;
    format      ascii;
    class       polyBoundaryMesh;
    location    "constant/polyMesh";
    object      boundary;
}
// * * * * * * * * * * * * * * * * * * * * * * * * * * * * * * * * * * * * * //

15
(
    walls
    {
        type            wall;
        inGroups        1(wall);
        nFaces          80;
        startFace       30646;
    }
    inlet
    {
        type            patch;
        nFaces          40;
        startFace       30726;
    }
    front
    {
        type            wall;
        inGroups        1(wall);
        nFaces          31184;
        startFace       30766;
    }
    outlet
    {
        type            patch;
        nFaces          40;
        startFace       61950;
    }
    blade0
    {
        type            wall;
        inGroups        
2
(
blades
wall
)
;
        nFaces          199;
        startFace       61990;
    }
    blade1
    {
        type            wall;
        inGroups        
2
(
blades
wall
)
;
        nFaces          229;
        startFace       62189;
    }
    blade2
    {
        type            wall;
        inGroups        
2
(
blades
wall
)
;
        nFaces          199;
        startFace       62418;
    }
    AMI-ext-master
    {
        type            cyclicAMI;
        inGroups        
2
(
cyclicAMI
AMI-ext
)
;
        nFaces          704;
        startFace       62617;
        matchTolerance  0.0001;
        transform       noOrdering;
        neighbourPatch  AMI-ext-slave;
    }
    AMI-ext-slave
    {
        type            cyclicAMI;
        inGroups        
2
(
cyclicAMI
AMI-ext
)
;
        nFaces          704;
        startFace       63321;
        matchTolerance  0.0001;
        transform       noOrdering;
        neighbourPatch  AMI-ext-master;
    }
    AMI-int0-master
    {
        type            cyclicAMI;
        inGroups        
2
(
cyclicAMI
AMI-int0
)
;
        nFaces          256;
        startFace       64025;
        matchTolerance  0.0001;
        transform       noOrdering;
        neighbourPatch  AMI-int0-slave;
    }
    AMI-int0-slave
    {
        type            cyclicAMI;
        inGroups        
2
(
cyclicAMI
AMI-int0
)
;
        nFaces          256;
        startFace       64281;
        matchTolerance  0.0001;
        transform       noOrdering;
        neighbourPatch  AMI-int0-master;
    }
    AMI-int1-master
    {
        type            cyclicAMI;
        inGroups        
2
(
cyclicAMI
AMI-int1
)
;
        nFaces          256;
        startFace       64537;
        matchTolerance  0.0001;
        transform       noOrdering;
        neighbourPatch  AMI-int1-slave;
    }
    AMI-int1-slave
    {
        type            cyclicAMI;
        inGroups        
2
(
cyclicAMI
AMI-int1
)
;
        nFaces          256;
        startFace       64793;
        matchTolerance  0.0001;
        transform       noOrdering;
        neighbourPatch  AMI-int1-master;
    }
    AMI-int2-master
    {
        type            cyclicAMI;
        inGroups        
2
(
cyclicAMI
AMI-int2
)
;
        nFaces          256;
        startFace       65049;
        matchTolerance  0.0001;
        transform       noOrdering;
        neighbourPatch  AMI-int2-slave;
    }
    AMI-int2-slave
    {
        type            cyclicAMI;
        inGroups        
2
(
cyclicAMI
AMI-int2
)
;
        nFaces          256;
        startFace       65305;
        matchTolerance  0.0001;
        transform       noOrdering;
        neighbourPatch  AMI-int2-master;
    }
)

// ************************************************************************* //
