/*--------------------------------*- C++ -*----------------------------------*\
| =========                 |                                                 |
| \\      /  F ield         | OpenFOAM: The Open Source CFD Toolbox           |
|  \\    /   O peration     | Version:  5.x                                   |
|   \\  /    A nd           | Web:      www.OpenFOAM.org                      |
|    \\/     M anipulation  |                                                 |
\*---------------------------------------------------------------------------*/
FoamFile
{
    version     2.0;
    format      ascii;
    class       polyBoundaryMesh;
    location    "constant/polyMesh";
    object      boundary;
}
// * * * * * * * * * * * * * * * * * * * * * * * * * * * * * * * * * * * * * //

8
(
    front
    {
        type            wall;
        inGroups        1(wall);
        nFaces          8701;
        startFace       288453;
    }
    walls
    {
        type            wall;
        inGroups        1(wall);
        nFaces          80;
        startFace       297154;
    }
    inlet
    {
        type            patch;
        nFaces          40;
        startFace       297234;
    }
    back
    {
        type            wall;
        inGroups        1(wall);
        nFaces          8704;
        startFace       297274;
    }
    outlet
    {
        type            patch;
        nFaces          40;
        startFace       305978;
    }
    blade0
    {
        type            wall;
        inGroups        
2
(
blades
wall
)
;
        nFaces          3184;
        startFace       306018;
    }
    blade1
    {
        type            wall;
        inGroups        
2
(
blades
wall
)
;
        nFaces          3648;
        startFace       309202;
    }
    blade2
    {
        type            wall;
        inGroups        
2
(
blades
wall
)
;
        nFaces          3195;
        startFace       312850;
    }
)

// ************************************************************************* //
