/*--------------------------------*- C++ -*----------------------------------*\
| =========                 |                                                 |
| \\      /  F ield         | OpenFOAM: The Open Source CFD Toolbox           |
|  \\    /   O peration     | Version:  5.x                                   |
|   \\  /    A nd           | Web:      www.OpenFOAM.org                      |
|    \\/     M anipulation  |                                                 |
\*---------------------------------------------------------------------------*/
FoamFile
{
    version     2.0;
    format      ascii;
    class       polyBoundaryMesh;
    location    "constant/polyMesh";
    object      boundary;
}
// * * * * * * * * * * * * * * * * * * * * * * * * * * * * * * * * * * * * * //

16
(
    back
    {
        type            wall;
        inGroups        1(wall);
        nFaces          13711;
        startFace       306740;
    }
    walls
    {
        type            wall;
        inGroups        1(wall);
        nFaces          80;
        startFace       320451;
    }
    inlet
    {
        type            patch;
        nFaces          40;
        startFace       320531;
    }
    front
    {
        type            wall;
        inGroups        1(wall);
        nFaces          13711;
        startFace       320571;
    }
    outlet
    {
        type            patch;
        nFaces          40;
        startFace       334282;
    }
    blade0
    {
        type            wall;
        inGroups        
2
(
blades
wall
)
;
        nFaces          3184;
        startFace       334322;
    }
    blade1
    {
        type            wall;
        inGroups        
2
(
blades
wall
)
;
        nFaces          3648;
        startFace       337506;
    }
    blade2
    {
        type            wall;
        inGroups        
2
(
blades
wall
)
;
        nFaces          3184;
        startFace       341154;
    }
    AMI-ext-master
    {
        type            cyclicAMI;
        inGroups        
2
(
cyclicAMI
AMI-ext
)
;
        nFaces          0;
        startFace       344338;
        matchTolerance  0.0001;
        transform       noOrdering;
        neighbourPatch  AMI-ext-slave;
    }
    AMI-ext-slave
    {
        type            cyclicAMI;
        inGroups        
2
(
cyclicAMI
AMI-ext
)
;
        nFaces          0;
        startFace       344338;
        matchTolerance  0.0001;
        transform       noOrdering;
        neighbourPatch  AMI-ext-master;
    }
    AMI-int0-master
    {
        type            cyclicAMI;
        inGroups        
2
(
cyclicAMI
AMI-int0
)
;
        nFaces          0;
        startFace       344338;
        matchTolerance  0.0001;
        transform       noOrdering;
        neighbourPatch  AMI-int0-slave;
    }
    AMI-int0-slave
    {
        type            cyclicAMI;
        inGroups        
2
(
cyclicAMI
AMI-int0
)
;
        nFaces          0;
        startFace       344338;
        matchTolerance  0.0001;
        transform       noOrdering;
        neighbourPatch  AMI-int0-master;
    }
    AMI-int1-master
    {
        type            cyclicAMI;
        inGroups        
2
(
cyclicAMI
AMI-int1
)
;
        nFaces          0;
        startFace       344338;
        matchTolerance  0.0001;
        transform       noOrdering;
        neighbourPatch  AMI-int1-slave;
    }
    AMI-int1-slave
    {
        type            cyclicAMI;
        inGroups        
2
(
cyclicAMI
AMI-int1
)
;
        nFaces          0;
        startFace       344338;
        matchTolerance  0.0001;
        transform       noOrdering;
        neighbourPatch  AMI-int1-master;
    }
    AMI-int2-master
    {
        type            cyclicAMI;
        inGroups        
2
(
cyclicAMI
AMI-int2
)
;
        nFaces          0;
        startFace       344338;
        matchTolerance  0.0001;
        transform       noOrdering;
        neighbourPatch  AMI-int2-slave;
    }
    AMI-int2-slave
    {
        type            cyclicAMI;
        inGroups        
2
(
cyclicAMI
AMI-int2
)
;
        nFaces          0;
        startFace       344338;
        matchTolerance  0.0001;
        transform       noOrdering;
        neighbourPatch  AMI-int2-master;
    }
)

// ************************************************************************* //
