/*--------------------------------*- C++ -*----------------------------------*\
| =========                 |                                                 |
| \\      /  F ield         | OpenFOAM: The Open Source CFD Toolbox           |
|  \\    /   O peration     | Version:  5.x                                   |
|   \\  /    A nd           | Web:      www.OpenFOAM.org                      |
|    \\/     M anipulation  |                                                 |
\*---------------------------------------------------------------------------*/
FoamFile
{
    version     2.0;
    format      ascii;
    class       polyBoundaryMesh;
    location    "constant/polyMesh";
    object      boundary;
}
// * * * * * * * * * * * * * * * * * * * * * * * * * * * * * * * * * * * * * //

8
(
    back
    {
        type            wall;
        inGroups        1(wall);
        nFaces          0;
        startFace       28927;
    }
    walls
    {
        type            wall;
        inGroups        1(wall);
        nFaces          80;
        startFace       28927;
    }
    inlet
    {
        type            patch;
        nFaces          40;
        startFace       29007;
    }
    front
    {
        type            wall;
        inGroups        1(wall);
        nFaces          28736;
        startFace       29047;
    }
    outlet
    {
        type            patch;
        nFaces          40;
        startFace       57783;
    }
    blade0
    {
        type            wall;
        inGroups        
2
(
blades
wall
)
;
        nFaces          199;
        startFace       57823;
    }
    blade1
    {
        type            wall;
        inGroups        
2
(
blades
wall
)
;
        nFaces          229;
        startFace       58022;
    }
    blade2
    {
        type            wall;
        inGroups        
2
(
blades
wall
)
;
        nFaces          199;
        startFace       58251;
    }
)

// ************************************************************************* //
