/*--------------------------------*- C++ -*----------------------------------*\
| =========                 |                                                 |
| \\      /  F ield         | OpenFOAM: The Open Source CFD Toolbox           |
|  \\    /   O peration     | Version:  2.2.1                                 |
|   \\  /    A nd           | Web:      www.OpenFOAM.org                      |
|    \\/     M anipulation  |                                                 |
\*---------------------------------------------------------------------------*/
FoamFile
{
    version     2.0;
    format      ascii;
    class       dictionary;
    location    "system";
    object      fvOptions;
}
// * * * * * * * * * * * * * * * * * * * * * * * * * * * * * * * * * * * * * //

// momentumSource
// {
//     type            vectorExplicitSetValue;
//     active          on;            //on/off switch
//     selectionMode   all;       //cellSet // points //cellZone
// 
//     vectorExplicitSetValueCoeffs
//     {
//         injectionRate
//         {
//             F    ( 0 -9.8 0 );
//         }
//     }
// }

// momentumSource
// {
//    type vectorSemiImplicitSource;
//    active on;
//    selectionMode all;
// 
//    vectorSemiImplicitSourceCoeffs
//    {
//       //volumeMode      absolute; // specific
//       volumeMode        specific;
//       selectionMode all;
//       injectionRateSuSp
//       {
//          U           ( (0 -9.8 0) 0);
//       }
//    }
// 
// }


// ************************************************************************* //
/*




/*--------------------------------*- C++ -*----------------------------------*\
| =========                 |                                                 |
| \\      /  F ield         | OpenFOAM: The Open Source CFD Toolbox           |
|  \\    /   O peration     | Version:  2.2.0                                 |
|   \\  /    A nd           | Web:      www.OpenFOAM.org                      |
|    \\/     M anipulation  |                                                 |
\*---------------------------------------------------------------------------*/
// FoamFile
// {
//     version     2.0;
//     format      ascii;
//     class       dictionary;
//     location    "system";
//     object      fvOptions;
// }
// // * * * * * * * * * * * * * * * * * * * * * * * * * * * * * * * * * * * * * //
// 
// gravitationalForce
// {
//     type            buoyancyForce;
// 	fields			(U);
//     active          true;
//     // timeStart       0; 
//     // duration        10; 
// }






// ************************************************************************* //*/
