/*--------------------------------*- C++ -*----------------------------------*\
| =========                 |                                                 |
| \\      /  F ield         | OpenFOAM: The Open Source CFD Toolbox           |
|  \\    /   O peration     | Version:  5.x                                   |
|   \\  /    A nd           | Web:      www.OpenFOAM.org                      |
|    \\/     M anipulation  |                                                 |
\*---------------------------------------------------------------------------*/
FoamFile
{
    version     2.0;
    format      ascii;
    class       polyBoundaryMesh;
    location    "1/polyMesh";
    object      boundary;
}
// * * * * * * * * * * * * * * * * * * * * * * * * * * * * * * * * * * * * * //

6
(
    walls
    {
        type            wall;
        inGroups        1(wall);
        nFaces          9952;
        startFace       111302;
    }
    outlet
    {
        type            patch;
        nFaces          40;
        startFace       121254;
    }
    inlet
    {
        type            patch;
        nFaces          40;
        startFace       121294;
    }
    blade0
    {
        type            wall;
        inGroups        1(wall);
        nFaces          4976;
        startFace       121334;
    }
    blade1
    {
        type            wall;
        inGroups        1(wall);
        nFaces          3986;
        startFace       126310;
    }
    blade2
    {
        type            wall;
        inGroups        1(wall);
        nFaces          4972;
        startFace       130296;
    }
)

// ************************************************************************* //
